-------------------------------------------------------
          Amber 16 SANDER                              2016
          -------------------------------------------------------

  [-O]verwriting output

File Assignments:

 Here is the input file:

constant temperature
&cntrl
ntxo=1,
imin = 0, nstlim = 4000, irest = 1, ntx = 5, dt = 0.002,
ntt = 1, temp0 = 300.0, tautp = 1.0,
ntb = 1,
ntc = 2, ntf = 2,
ioutfm = 1, iwrap = 1,
ntwe = 800, ntwx = 800, ntpr = 400,
ntr = 1, restraint_wt = 10.00,
restraintmask="!:WAT,HOH,T3P,T4P",
/

--------------------------------------------------------------------------------
   1.  RESOURCE   USE:
--------------------------------------------------------------------------------

 getting new box info from bottom of inpcrd

 NATOM  =    2889 NTYPES =       5 NBONH =    1926 MBONA  =     856
 NTHETH =    4494 MTHETA =     749 NPHIH =    6741 MPHIA  =    1712
 NHPARM =       0 NPARM  =       0 NNB   =   15194 NRES   =     107
 NBONA  =     856 NTHETA =     749 NPHIA =    1712 NUMBND =       5
 NUMANG =       8 NPTRA  =       9 NATYP =       5 NPHB   =       0
 IFBOX  =       1 NMXRS  =      27 IFCAP =       0 NEXTRA =       0
 NCOPY  =       0

     BOX TYPE: RECTILINEAR

--------------------------------------------------------------------------------
   2.  CONTROL  DATA  FOR  THE  RUN
--------------------------------------------------------------------------------

OCT

General flags:
     imin    =       0, nmropt  =       0

Nature and format of input:
     ntx     =       5, irest   =       1, ntrx    =       1

Nature and format of output:
     ntxo    =       1, ntpr    =     400, ntrx    =       1, ntwr    =    4000
     iwrap   =       1, ntwx    =     800, ntwv    =       0, ntwe    =     800
     ioutfm  =       1, ntwprt  =       0, idecomp =       0, rbornstat=      0

Potential function:
     ntf     =       2, ntb     =       1, igb     =       0, nsnb    =      25
     ipol    =       0, gbsa    =       0, iesp    =       0
     dielc   =   1.00000, cut     =   8.00000, intdiel =   1.00000

Frozen or restrained atoms:
     ibelly  =       0, ntr     =       1
     restraint_wt =  10.00000

Molecular dynamics:
     nstlim  =      4000, nscm    =         0, nrespa  =         1
     t       =   0.00000, dt      =   0.00200, vlimit  =  20.00000

Berendsen (weak-coupling) temperature regulation:
     temp0   = 300.00000, tempi   =   0.00000, tautp   =   1.00000

SHAKE:
     ntc     =       2, jfastw  =       0
     tol     =   0.00001

Ewald parameters:
     verbose =       0, ew_type =       0, nbflag  =       1, use_pme =       1
     vdwmeth =       1, eedmeth =       1, netfrc  =       1
     Box X =   49.992   Box Y =   33.606   Box Z =   48.816
     Alpha =   90.000   Beta  =   90.000   Gamma =   90.000
     NFFT1 =   50       NFFT2 =   36       NFFT3 =   48
     Cutoff=    8.000   Tol   =0.100E-04
     Ewald Coefficient =  0.34864
     Interpolation order =    4

    LOADING THE CONSTRAINED ATOMS AS GROUPS

   5.  REFERENCE ATOM COORDINATES

  OCT
     Mask !:WAT,HOH,T3P,T4P; matches  2889 atoms

--------------------------------------------------------------------------------
   3.  ATOMIC COORDINATES AND VELOCITIES
--------------------------------------------------------------------------------

OCT
 begin time read from input coords =     2.000 ps

 Number of triangulated 3-point waters found:        0

     Sum of charges from parm topology file =  -0.10699977
     Assuming uniform neutralizing plasma

--------------------------------------------------------------------------------
   4.  RESULTS
 NSTEP =      400   TIME(PS) =       2.800  TEMP(K) =   165.17  PRESS =     0.0
 Etot   =      2747.6009  EKtot   =      1106.2673  EPtot      =      1641.3335
 BOND   =       136.0191  ANGLE   =       774.9210  DIHED      =       389.5374
 1-4 NB =       242.6608  1-4 EEL =      -247.1006  VDWAALS    =      -175.7203
 EELEC  =       160.6006  EHBOND  =         0.0000  RESTRAINT  =       360.4156
 EAMBER (non-restraint)  =      1280.9180
 Ewald error estimate:   0.2327E-01
 ------------------------------------------------------------------------------

      A V E R A G E S   O V E R    4000 S T E P S

 NSTEP =     4000   TIME(PS) =      10.000  TEMP(K) =   250.90  PRESS =     0.0
 Etot   =      3863.4455  EKtot   =      1680.4723  EPtot      =      2182.9731
 BOND   =       213.8834  ANGLE   =      1013.2015  DIHED      =       410.6221
 1-4 NB =       252.0733  1-4 EEL =      -243.7939  VDWAALS    =      -168.1198
 EELEC  =       161.1931  EHBOND  =         0.0000  RESTRAINT  =       543.9136
 EAMBER (non-restraint)  =      1639.0596
 Ewald error estimate:   0.2199E-01
 ------------------------------------------------------------------------------

      R M S  F L U C T U A T I O N S

 NSTEP =     4000   TIME(PS) =      10.000  TEMP(K) =    50.32  PRESS =     0.0
 Etot   =       673.0116  EKtot   =       337.0152  EPtot      =       352.4011
 BOND   =        42.5359  ANGLE   =       181.5835  DIHED      =        10.2308
 1-4 NB =         7.8787  1-4 EEL =         3.3081  VDWAALS    =         7.6712
 EELEC  =         2.3038  EHBOND  =         0.0000  RESTRAINT  =       114.9463
 EAMBER (non-restraint)  =       237.4548
 Ewald error estimate:   0.1267E-02
 ------------------------------------------------------------------------------
