-------------------------------------------------------
          Amber 16 SANDER                              2016
          -------------------------------------------------------

  [-O]verwriting output

File Assignments:

 Here is the input file:

md with sander
&cntrl
ntxo=1,
imin = 0, nstlim = 15000, irest = 1, ntx = 5, dt = 0.002,
ntt = 1, temp0 = 298.0, tautp = 1.0,
ntp = 1, pres0 = 1.0, taup = 0.5,
ntb = 2,
ntc = 2, ntf = 2,
ioutfm = 1, iwrap = 1,
ntwe = 3000, ntwx = 3000, ntpr = 1500,
ntr = 1, restraint_wt = 10.00,
restraintmask="!:WAT,HOH,T3P,T4P",
/

--------------------------------------------------------------------------------
   1.  RESOURCE   USE:
--------------------------------------------------------------------------------

 getting new box info from bottom of inpcrd

 NATOM  =    2889 NTYPES =       5 NBONH =    1926 MBONA  =     856
 NTHETH =    4494 MTHETA =     749 NPHIH =    6741 MPHIA  =    1712
 NHPARM =       0 NPARM  =       0 NNB   =   15194 NRES   =     107
 NBONA  =     856 NTHETA =     749 NPHIA =    1712 NUMBND =       5
 NUMANG =       8 NPTRA  =       9 NATYP =       5 NPHB   =       0
 IFBOX  =       1 NMXRS  =      27 IFCAP =       0 NEXTRA =       0
 NCOPY  =       0

     BOX TYPE: RECTILINEAR

--------------------------------------------------------------------------------
   2.  CONTROL  DATA  FOR  THE  RUN
--------------------------------------------------------------------------------

OCT

General flags:
     imin    =       0, nmropt  =       0

Nature and format of input:
     ntx     =       5, irest   =       1, ntrx    =       1

Nature and format of output:
     ntxo    =       1, ntpr    =    1500, ntrx    =       1, ntwr    =   15000
     iwrap   =       1, ntwx    =    3000, ntwv    =       0, ntwe    =    3000
     ioutfm  =       1, ntwprt  =       0, idecomp =       0, rbornstat=      0

Potential function:
     ntf     =       2, ntb     =       2, igb     =       0, nsnb    =      25
     ipol    =       0, gbsa    =       0, iesp    =       0
     dielc   =   1.00000, cut     =   8.00000, intdiel =   1.00000

Frozen or restrained atoms:
     ibelly  =       0, ntr     =       1
     restraint_wt =  10.00000

Molecular dynamics:
     nstlim  =     15000, nscm    =         0, nrespa  =         1
     t       =   0.00000, dt      =   0.00200, vlimit  =  20.00000

Berendsen (weak-coupling) temperature regulation:
     temp0   = 298.00000, tempi   =   0.00000, tautp   =   1.00000

Pressure regulation:
     ntp     =       1
     pres0   =   1.00000, comp    =  44.60000, taup    =   0.50000

SHAKE:
     ntc     =       2, jfastw  =       0
     tol     =   0.00001

Ewald parameters:
     verbose =       0, ew_type =       0, nbflag  =       1, use_pme =       1
     vdwmeth =       1, eedmeth =       1, netfrc  =       1
     Box X =   49.992   Box Y =   33.606   Box Z =   48.816
     Alpha =   90.000   Beta  =   90.000   Gamma =   90.000
     NFFT1 =   50       NFFT2 =   36       NFFT3 =   48
     Cutoff=    8.000   Tol   =0.100E-04
     Ewald Coefficient =  0.34864
     Interpolation order =    4

    LOADING THE CONSTRAINED ATOMS AS GROUPS

   5.  REFERENCE ATOM COORDINATES

  OCT
     Mask !:WAT,HOH,T3P,T4P; matches  2889 atoms

--------------------------------------------------------------------------------
   3.  ATOMIC COORDINATES AND VELOCITIES
--------------------------------------------------------------------------------

OCT
 begin time read from input coords =    10.000 ps

 Number of triangulated 3-point waters found:        0

     Sum of charges from parm topology file =  -0.10699977
     Assuming uniform neutralizing plasma

--------------------------------------------------------------------------------
   4.  RESULTS
 NSTEP =     1500   TIME(PS) =      13.000  TEMP(K) =   305.47  PRESS =  -355.1
 Etot   =      4463.6597  EKtot   =      2045.9610  EPtot      =      2417.6987
 BOND   =       267.3562  ANGLE   =      1153.7015  DIHED      =       419.0798
 1-4 NB =       256.6519  1-4 EEL =      -242.9400  VDWAALS    =      -195.7331
 EELEC  =       163.7977  EHBOND  =         0.0000  RESTRAINT  =       595.7846
 EAMBER (non-restraint)  =      1821.9140
 EKCMT  =        81.5936  VIRIAL  =       661.8460  VOLUME     =     75687.2716
                                                    Density    =         0.3057
 Ewald error estimate:   0.6106E-02
 ------------------------------------------------------------------------------

      A V E R A G E S   O V E R   15000 S T E P S

 NSTEP =    15000   TIME(PS) =      40.000  TEMP(K) =   297.73  PRESS =  -218.0
 Etot   =      4253.5325  EKtot   =      1994.1544  EPtot      =      2259.3781
 BOND   =       258.1944  ANGLE   =      1183.1666  DIHED      =       421.4425
 1-4 NB =       265.4628  1-4 EEL =      -241.2710  VDWAALS    =      -418.6582
 EELEC  =       151.1528  EHBOND  =         0.0000  RESTRAINT  =       639.8882
 EAMBER (non-restraint)  =      1619.4899
 EKCMT  =        82.6833  VIRIAL  =       375.0261  VOLUME     =     53838.7908
                                                    Density    =         0.4478
 Ewald error estimate:   0.5510E-02
 ------------------------------------------------------------------------------

      R M S  F L U C T U A T I O N S

 NSTEP =    15000   TIME(PS) =      40.000  TEMP(K) =     5.15  PRESS =   275.7
 Etot   =       115.9983  EKtot   =        34.5135  EPtot      =       123.4982
 BOND   =        11.7224  ANGLE   =        21.1255  DIHED      =         3.8044
 1-4 NB =         7.5195  1-4 EEL =         3.6545  VDWAALS    =       123.9003
 EELEC  =         6.3395  EHBOND  =         0.0000  RESTRAINT  =        26.6340
 EAMBER (non-restraint)  =        96.8642
 EKCMT  =        12.9681  VIRIAL  =       356.2999  VOLUME     =     12009.1858
                                                    Density    =         0.0813
 Ewald error estimate:   0.4652E-02
 ------------------------------------------------------------------------------
