-------------------------------------------------------
          Amber 16 SANDER                              2016
          -------------------------------------------------------

  [-O]verwriting output

File Assignments:

 Here is the input file:

md with sander
&cntrl
ntxo=1,
imin = 0, nstlim = 15000, irest = 1, ntx = 5, dt = 0.002,
ntt = 1, temp0 = 298.0, tautp = 1.0,
ntp = 1, pres0 = 1.0, taup = 0.5,
ntb = 2,
ntc = 2, ntf = 2,
ioutfm = 1, iwrap = 1,
ntwe = 3000, ntwx = 3000, ntpr = 1500,
ntr = 1, restraint_wt = 10.00,
restraintmask="!:OCT",
/

--------------------------------------------------------------------------------
   1.  RESOURCE   USE:
--------------------------------------------------------------------------------

 getting new box info from bottom of inpcrd

 NATOM  =    3861 NTYPES =       5 NBONH =    2574 MBONA  =    1144
 NTHETH =    6006 MTHETA =    1001 NPHIH =    9009 MPHIA  =    2288
 NHPARM =       0 NPARM  =       0 NNB   =   20306 NRES   =     143
 NBONA  =    1144 NTHETA =    1001 NPHIA =    2288 NUMBND =       5
 NUMANG =       8 NPTRA  =       9 NATYP =       5 NPHB   =       0
 IFBOX  =       1 NMXRS  =      27 IFCAP =       0 NEXTRA =       0
 NCOPY  =       0

     BOX TYPE: RECTILINEAR

--------------------------------------------------------------------------------
   2.  CONTROL  DATA  FOR  THE  RUN
--------------------------------------------------------------------------------

OCT

General flags:
     imin    =       0, nmropt  =       0

Nature and format of input:
     ntx     =       5, irest   =       1, ntrx    =       1

Nature and format of output:
     ntxo    =       1, ntpr    =    1500, ntrx    =       1, ntwr    =   15000
     iwrap   =       1, ntwx    =    3000, ntwv    =       0, ntwe    =    3000
     ioutfm  =       1, ntwprt  =       0, idecomp =       0, rbornstat=      0

Potential function:
     ntf     =       2, ntb     =       2, igb     =       0, nsnb    =      25
     ipol    =       0, gbsa    =       0, iesp    =       0
     dielc   =   1.00000, cut     =   8.00000, intdiel =   1.00000

Frozen or restrained atoms:
     ibelly  =       0, ntr     =       1
     restraint_wt =  10.00000

Molecular dynamics:
     nstlim  =     15000, nscm    =         0, nrespa  =         1
     t       =   0.00000, dt      =   0.00200, vlimit  =  20.00000

Berendsen (weak-coupling) temperature regulation:
     temp0   = 298.00000, tempi   =   0.00000, tautp   =   1.00000

Pressure regulation:
     ntp     =       1
     pres0   =   1.00000, comp    =  44.60000, taup    =   0.50000

SHAKE:
     ntc     =       2, jfastw  =       0
     tol     =   0.00001

Ewald parameters:
     verbose =       0, ew_type =       0, nbflag  =       1, use_pme =       1
     vdwmeth =       1, eedmeth =       1, netfrc  =       1
     Box X =   49.992   Box Y =   44.808   Box Z =   48.816
     Alpha =   90.000   Beta  =   90.000   Gamma =   90.000
     NFFT1 =   50       NFFT2 =   45       NFFT3 =   48
     Cutoff=    8.000   Tol   =0.100E-04
     Ewald Coefficient =  0.34864
     Interpolation order =    4

    LOADING THE CONSTRAINED ATOMS AS GROUPS

   5.  REFERENCE ATOM COORDINATES

  OCT
     Mask !:OCT; matches    27 atoms

--------------------------------------------------------------------------------
   3.  ATOMIC COORDINATES AND VELOCITIES
--------------------------------------------------------------------------------

OCT
 begin time read from input coords =    10.000 ps

 Number of triangulated 3-point waters found:        0

     Sum of charges from parm topology file =  -0.14299969
     Assuming uniform neutralizing plasma

--------------------------------------------------------------------------------
   4.  RESULTS
 NSTEP =     1500   TIME(PS) =      13.000  TEMP(K) =   292.53  PRESS =   -19.2
 Etot   =      5135.4948  EKtot   =      2618.5093  EPtot      =      2516.9854
 BOND   =       337.2481  ANGLE   =      1560.7695  DIHED      =       944.9174
 1-4 NB =       381.2292  1-4 EEL =      -414.0813  VDWAALS    =      -586.3520
 EELEC  =       287.2489  EHBOND  =         0.0000  RESTRAINT  =         6.0057
 EAMBER (non-restraint)  =      2510.9797
 EKCMT  =       210.8706  VIRIAL  =       255.6469  VOLUME     =    108114.3869
                                                    Density    =         0.2860
 Ewald error estimate:   0.1014E-03
 ------------------------------------------------------------------------------

      A V E R A G E S   O V E R   15000 S T E P S

 NSTEP =    15000   TIME(PS) =      40.000  TEMP(K) =   300.05  PRESS =  -161.6
 Etot   =      4789.8945  EKtot   =      2685.8598  EPtot      =      2104.0347
 BOND   =       356.5908  ANGLE   =      1692.3764  DIHED      =       872.0315
 1-4 NB =       379.7421  1-4 EEL =      -416.5282  VDWAALS    =      -855.5114
 EELEC  =        69.3571  EHBOND  =         0.0000  RESTRAINT  =         5.9765
 EAMBER (non-restraint)  =      2098.0582
 EKCMT  =       171.3387  VIRIAL  =       480.6041  VOLUME     =     93864.9754
                                                    Density    =         0.3348
 Ewald error estimate:   0.6648E-02
 ------------------------------------------------------------------------------

      R M S  F L U C T U A T I O N S

 NSTEP =    15000   TIME(PS) =      40.000  TEMP(K) =     3.76  PRESS =   124.5
 Etot   =       266.8780  EKtot   =        33.6631  EPtot      =       274.7784
 BOND   =        21.2780  ANGLE   =        82.1350  DIHED      =        47.7778
 1-4 NB =         8.0899  1-4 EEL =        13.7914  VDWAALS    =       173.7419
 EELEC  =       142.8560  EHBOND  =         0.0000  RESTRAINT  =         1.5738
 EAMBER (non-restraint)  =       273.2046
 EKCMT  =        28.1634  VIRIAL  =       211.6906  VOLUME     =     11479.9088
                                                    Density    =         0.0437
 Ewald error estimate:   0.9872E-01
 ------------------------------------------------------------------------------
