-------------------------------------------------------
          Amber 16 SANDER                              2016
          -------------------------------------------------------

  [-O]verwriting output

File Assignments:

 Here is the input file:

constant temperature
&cntrl
ntxo=1,
imin = 0, nstlim = 4000, irest = 1, ntx = 5, dt = 0.002,
ntt = 1, temp0 = 300.0, tautp = 1.0,
ntb = 1,
ntc = 2, ntf = 2,
ioutfm = 1, iwrap = 1,
ntwe = 800, ntwx = 800, ntpr = 400,
ntr = 1, restraint_wt = 10.00,
restraintmask="!:OCT",
/

--------------------------------------------------------------------------------
   1.  RESOURCE   USE:
--------------------------------------------------------------------------------

 getting new box info from bottom of inpcrd

 NATOM  =    3861 NTYPES =       5 NBONH =    2574 MBONA  =    1144
 NTHETH =    6006 MTHETA =    1001 NPHIH =    9009 MPHIA  =    2288
 NHPARM =       0 NPARM  =       0 NNB   =   20306 NRES   =     143
 NBONA  =    1144 NTHETA =    1001 NPHIA =    2288 NUMBND =       5
 NUMANG =       8 NPTRA  =       9 NATYP =       5 NPHB   =       0
 IFBOX  =       1 NMXRS  =      27 IFCAP =       0 NEXTRA =       0
 NCOPY  =       0

     BOX TYPE: RECTILINEAR

--------------------------------------------------------------------------------
   2.  CONTROL  DATA  FOR  THE  RUN
--------------------------------------------------------------------------------

OCT

General flags:
     imin    =       0, nmropt  =       0

Nature and format of input:
     ntx     =       5, irest   =       1, ntrx    =       1

Nature and format of output:
     ntxo    =       1, ntpr    =     400, ntrx    =       1, ntwr    =    4000
     iwrap   =       1, ntwx    =     800, ntwv    =       0, ntwe    =     800
     ioutfm  =       1, ntwprt  =       0, idecomp =       0, rbornstat=      0

Potential function:
     ntf     =       2, ntb     =       1, igb     =       0, nsnb    =      25
     ipol    =       0, gbsa    =       0, iesp    =       0
     dielc   =   1.00000, cut     =   8.00000, intdiel =   1.00000

Frozen or restrained atoms:
     ibelly  =       0, ntr     =       1
     restraint_wt =  10.00000

Molecular dynamics:
     nstlim  =      4000, nscm    =         0, nrespa  =         1
     t       =   0.00000, dt      =   0.00200, vlimit  =  20.00000

Berendsen (weak-coupling) temperature regulation:
     temp0   = 300.00000, tempi   =   0.00000, tautp   =   1.00000

SHAKE:
     ntc     =       2, jfastw  =       0
     tol     =   0.00001

Ewald parameters:
     verbose =       0, ew_type =       0, nbflag  =       1, use_pme =       1
     vdwmeth =       1, eedmeth =       1, netfrc  =       1
     Box X =   49.992   Box Y =   44.808   Box Z =   48.816
     Alpha =   90.000   Beta  =   90.000   Gamma =   90.000
     NFFT1 =   50       NFFT2 =   45       NFFT3 =   48
     Cutoff=    8.000   Tol   =0.100E-04
     Ewald Coefficient =  0.34864
     Interpolation order =    4

    LOADING THE CONSTRAINED ATOMS AS GROUPS

   5.  REFERENCE ATOM COORDINATES

  OCT
     Mask !:OCT; matches    27 atoms

--------------------------------------------------------------------------------
   3.  ATOMIC COORDINATES AND VELOCITIES
--------------------------------------------------------------------------------

OCT
 begin time read from input coords =     2.000 ps

 Number of triangulated 3-point waters found:        0

     Sum of charges from parm topology file =  -0.14299969
     Assuming uniform neutralizing plasma

--------------------------------------------------------------------------------
   4.  RESULTS
 NSTEP =      400   TIME(PS) =       2.800  TEMP(K) =   200.04  PRESS =     0.0
 Etot   =      3099.1502  EKtot   =      1790.6484  EPtot      =      1308.5017
 BOND   =       117.8073  ANGLE   =       565.2601  DIHED      =       926.1152
 1-4 NB =       334.0482  1-4 EEL =      -368.6745  VDWAALS    =      -496.3113
 EELEC  =       227.4696  EHBOND  =         0.0000  RESTRAINT  =         2.7872
 EAMBER (non-restraint)  =      1305.7145
 Ewald error estimate:   0.2048E-03
 ------------------------------------------------------------------------------

      A V E R A G E S   O V E R    4000 S T E P S

 NSTEP =     4000   TIME(PS) =      10.000  TEMP(K) =   259.39  PRESS =     0.0
 Etot   =      4328.0813  EKtot   =      2321.8963  EPtot      =      2006.1850
 BOND   =       217.4620  ANGLE   =      1031.2671  DIHED      =       992.6613
 1-4 NB =       371.6664  1-4 EEL =      -388.0432  VDWAALS    =      -498.4774
 EELEC  =       274.2307  EHBOND  =         0.0000  RESTRAINT  =         5.4182
 EAMBER (non-restraint)  =      2000.7668
 Ewald error estimate:   0.4482E-03
 ------------------------------------------------------------------------------

      R M S  F L U C T U A T I O N S

 NSTEP =     4000   TIME(PS) =      10.000  TEMP(K) =    36.23  PRESS =     0.0
 Etot   =       752.3894  EKtot   =       324.3410  EPtot      =       432.2837
 BOND   =        68.5099  ANGLE   =       306.3825  DIHED      =        57.4813
 1-4 NB =        20.6466  1-4 EEL =        20.4355  VDWAALS    =        19.8567
 EELEC  =        30.4111  EHBOND  =         0.0000  RESTRAINT  =         2.6045
 EAMBER (non-restraint)  =       429.6792
 Ewald error estimate:   0.3307E-03
 ------------------------------------------------------------------------------
