-------------------------------------------------------
          Amber 16 SANDER                              2016
          -------------------------------------------------------

  [-O]verwriting output

File Assignments:

 Here is the input file:

md with sander
&cntrl
ntxo=1,
imin = 0, nstlim = 15000, irest = 1, ntx = 5, dt = 0.002,
ntt = 1, temp0 = 298.0, tautp = 1.0,
ntp = 1, pres0 = 1.0, taup = 0.5,
ntb = 2,
ntc = 2, ntf = 2,
ioutfm = 1, iwrap = 1,
ntwe = 3000, ntwx = 3000, ntpr = 1500,
ntr = 1, restraint_wt = 10.00,
restraintmask="!:WAT,HOH,T3P,T4P",
/

--------------------------------------------------------------------------------
   1.  RESOURCE   USE:
--------------------------------------------------------------------------------

 getting new box info from bottom of inpcrd

 NATOM  =    3219 NTYPES =       7 NBONH =    3210 MBONA  =       8
 NTHETH =      42 MTHETA =       7 NPHIH =      63 MPHIA  =      16
 NHPARM =       0 NPARM  =       0 NNB   =    4398 NRES   =    1065
 NBONA  =       8 NTHETA =       7 NPHIA =      16 NUMBND =       7
 NUMANG =       8 NPTRA  =       9 NATYP =       7 NPHB   =       1
 IFBOX  =       1 NMXRS  =      27 IFCAP =       0 NEXTRA =       0
 NCOPY  =       0

     BOX TYPE: RECTILINEAR

--------------------------------------------------------------------------------
   2.  CONTROL  DATA  FOR  THE  RUN
--------------------------------------------------------------------------------

OCT

General flags:
     imin    =       0, nmropt  =       0

Nature and format of input:
     ntx     =       5, irest   =       1, ntrx    =       1

Nature and format of output:
     ntxo    =       1, ntpr    =    1500, ntrx    =       1, ntwr    =   15000
     iwrap   =       1, ntwx    =    3000, ntwv    =       0, ntwe    =    3000
     ioutfm  =       1, ntwprt  =       0, idecomp =       0, rbornstat=      0

Potential function:
     ntf     =       2, ntb     =       2, igb     =       0, nsnb    =      25
     ipol    =       0, gbsa    =       0, iesp    =       0
     dielc   =   1.00000, cut     =   8.00000, intdiel =   1.00000

Frozen or restrained atoms:
     ibelly  =       0, ntr     =       1
     restraint_wt =  10.00000

Molecular dynamics:
     nstlim  =     15000, nscm    =         0, nrespa  =         1
     t       =   0.00000, dt      =   0.00200, vlimit  =  20.00000

Berendsen (weak-coupling) temperature regulation:
     temp0   = 298.00000, tempi   =   0.00000, tautp   =   1.00000

Pressure regulation:
     ntp     =       1
     pres0   =   1.00000, comp    =  44.60000, taup    =   0.50000

SHAKE:
     ntc     =       2, jfastw  =       0
     tol     =   0.00001

Ewald parameters:
     verbose =       0, ew_type =       0, nbflag  =       1, use_pme =       1
     vdwmeth =       1, eedmeth =       1, netfrc  =       1
     Box X =   35.010   Box Y =   38.307   Box Z =   35.644
     Alpha =   90.000   Beta  =   90.000   Gamma =   90.000
     NFFT1 =   36       NFFT2 =   40       NFFT3 =   36
     Cutoff=    8.000   Tol   =0.100E-04
     Ewald Coefficient =  0.34864
     Interpolation order =    4

    LOADING THE CONSTRAINED ATOMS AS GROUPS

   5.  REFERENCE ATOM COORDINATES

  OCT
     Mask !:WAT,HOH,T3P,T4P; matches    27 atoms

--------------------------------------------------------------------------------
   3.  ATOMIC COORDINATES AND VELOCITIES
--------------------------------------------------------------------------------

OCT
 begin time read from input coords =    10.000 ps

 Number of triangulated 3-point waters found:     1064

     Sum of charges from parm topology file =  -0.00100000
     Forcing neutrality...

--------------------------------------------------------------------------------
   4.  RESULTS
 NSTEP =     1500   TIME(PS) =      13.000  TEMP(K) =   293.55  PRESS =  -427.4
 Etot   =     -7970.0850  EKtot   =      1880.3704  EPtot      =     -9850.4554
 BOND   =         2.7602  ANGLE   =         7.9325  DIHED      =         3.9342
 1-4 NB =         2.5674  1-4 EEL =        -2.4252  VDWAALS    =      1495.7453
 EELEC  =    -11366.9729  EHBOND  =         0.0000  RESTRAINT  =         6.0032
 EAMBER (non-restraint)  =     -9856.4586
 EKCMT  =       923.3596  VIRIAL  =      1312.1415  VOLUME     =     42133.4603
                                                    Density    =         0.7606
 Ewald error estimate:   0.1502E-04
 ------------------------------------------------------------------------------

      A V E R A G E S   O V E R   15000 S T E P S

 NSTEP =    15000   TIME(PS) =      40.000  TEMP(K) =   297.79  PRESS =  -144.8
 Etot   =     -8173.2913  EKtot   =      1907.5657  EPtot      =    -10080.8570
 BOND   =         1.7578  ANGLE   =         8.5825  DIHED      =         3.8684
 1-4 NB =         2.4197  1-4 EEL =        -2.2034  VDWAALS    =      1503.7407
 EELEC  =    -11604.0626  EHBOND  =         0.0000  RESTRAINT  =         5.0399
 EAMBER (non-restraint)  =    -10085.8969
 EKCMT  =       949.7603  VIRIAL  =      1073.6244  VOLUME     =     34851.0439
                                                    Density    =         0.9300
 Ewald error estimate:   0.1703E-03
 ------------------------------------------------------------------------------

      R M S  F L U C T U A T I O N S

 NSTEP =    15000   TIME(PS) =      40.000  TEMP(K) =     4.39  PRESS =   312.5
 Etot   =       106.1247  EKtot   =        28.1168  EPtot      =       115.2001
 BOND   =         0.8113  ANGLE   =         1.6026  DIHED      =         0.3001
 1-4 NB =         0.4264  1-4 EEL =         0.2955  VDWAALS    =        40.2510
 EELEC  =       125.6280  EHBOND  =         0.0000  RESTRAINT  =         1.3619
 EAMBER (non-restraint)  =       113.8383
 EKCMT  =        22.3291  VIRIAL  =       253.6490  VOLUME     =      4040.0359
                                                    Density    =         0.0906
 Ewald error estimate:   0.1312E-03
 ------------------------------------------------------------------------------
